data_bpdc_dft
_audit_creation_date 'Mon Oct 27 21:22:54 2008'
_audit_creation_method 'generated by GDIS v0.89'
_cell_length_a 31.8931
_cell_length_b 15.6099
_cell_length_c 7.9348
_cell_angle_alpha 90.00
_cell_angle_beta 84.83
_cell_angle_gamma 90.00
_symmetry_space_group_name_H-M 'I12/A1'
_symmetry_Int_Tables_number 15
loop_
_atom_site_label
_atom_site_fract_x
_atom_site_fract_y
_atom_site_fract_z
Zr 0.7077 0.7594 0.1378
 O 0.7245 0.7383 0.3780
 H 0.6891 0.0393 0.1410
 H 0.6883 0.1970 0.1401
 C 0.7158 0.0749 0.0786
 C 0.7158 0.1639 0.0775
 O 0.7203 0.8961 0.0912
 H 0.6894 0.4781 0.1434
 H 0.6887 0.3205 0.1434
 C 0.7160 0.4425 0.0801
 C 0.7160 0.3535 0.0791
 O 0.7216 0.6215 0.0976
 C 0.7500 0.5835 0.0000
 C 0.7500 0.4882 0.0000
 C 0.7500 0.3063 0.0000
 C 0.7500 0.9339 0.0000
 C 0.7500 0.0292 0.0000
 C 0.7500 0.2112 0.0000
 O 0.6489 0.7972 0.5607
 O 0.6550 0.8276 0.2794
 C 0.5376 0.9486 0.3291
 C 0.5755 0.9042 0.3090
 H 0.5213 0.9617 0.2161
 H 0.5887 0.8829 0.1835
 C 0.5202 0.9763 0.4895
 C 0.5430 0.9572 0.6293
 C 0.5971 0.8843 0.4500
 C 0.5804 0.9113 0.6106
 C 0.6367 0.8332 0.4286
 H 0.5312 0.9780 0.7568
 H 0.5974 0.8958 0.7208
