data_MIL-140D-DFT
_audit_creation_date 2012-03-12
_audit_creation_method 'Materials Studio'
_symmetry_space_group_name_H-M 'CC'
_symmetry_Int_Tables_number 9
_symmetry_cell_setting monoclinic
loop_
_symmetry_equiv_pos_as_xyz
 x,y,z
 x,-y,z+1/2
 x+1/2,y+1/2,z
 x+1/2,-y+1/2,z+1/2
_cell_length_a 34.8613
_cell_length_b 17.4795
_cell_length_c 7.8598
_cell_angle_alpha 90.0000
_cell_angle_beta 90.2700
_cell_angle_gamma 90.0000
loop_
_atom_site_label
_atom_site_type_symbol
_atom_site_fract_x
_atom_site_fract_y
_atom_site_fract_z
_atom_site_U_iso_or_equiv
_atom_site_adp_type
_atom_site_occupancy
H1 H 0.30960 0.74080 0.80810 0.00000 Uiso 1.00
C2 C 0.31810 0.78190 0.70960 0.00000 Uiso 1.00
C3 C 0.29440 0.79030 0.56580 0.00000 Uiso 1.00
C4 C 0.30440 0.84220 0.43620 0.00000 Uiso 1.00
H5 H 0.28540 0.84810 0.32540 0.00000 Uiso 1.00
C6 C 0.39650 0.92510 0.61350 0.00000 Uiso 1.00
O7 O 0.41380 0.92520 0.75660 0.00000 Uiso 1.00
C8 C 0.35130 0.82550 0.72550 0.00000 Uiso 1.00
C9 C 0.33770 0.88480 0.45170 0.00000 Uiso 1.00
C10 C 0.36130 0.87710 0.59660 0.00000 Uiso 1.00
H11 H 0.36990 0.82040 0.83780 0.00000 Uiso 1.00
Cl12 Cl 0.34738 0.94725 0.28410 0.00000 Uiso 1.00
N13 N 0.26100 0.74440 0.56420 0.00000 Uiso 1.00
O14 O 0.40650 0.96430 0.48260 0.00000 Uiso 1.00
H15 H 0.19130 0.75700 0.18990 0.00000 Uiso 1.00
C16 C 0.18270 0.71600 0.28840 0.00000 Uiso 1.00
C17 C 0.20640 0.70720 0.43200 0.00000 Uiso 1.00
C18 C 0.19640 0.65550 0.56170 0.00000 Uiso 1.00
H19 H 0.21540 0.64930 0.67220 0.00000 Uiso 1.00
C20 C 0.10360 0.57440 0.38610 0.00000 Uiso 1.00
O21 O 0.08620 0.57480 0.24340 0.00000 Uiso 1.00
C22 C 0.14920 0.67300 0.27310 0.00000 Uiso 1.00
C23 C 0.16280 0.61350 0.54680 0.00000 Uiso 1.00
C24 C 0.13910 0.62160 0.40230 0.00000 Uiso 1.00
H25 H 0.13050 0.67840 0.16120 0.00000 Uiso 1.00
Cl26 Cl 0.15302 0.55119 0.71454 0.00000 Uiso 1.00
N27 N 0.23990 0.75290 0.43340 0.00000 Uiso 1.00
O28 O 0.09360 0.53540 0.51710 0.00000 Uiso 1.00
Zr29 Zr 0.03910 0.49340 0.62090 0.00000 Uiso 1.00
O30 O 0.97700 0.50280 0.63020 0.00000 Uiso 1.00
O31 O 0.02300 0.49710 0.36970 0.00000 Uiso 1.00
Zr32 Zr 0.96090 0.50650 0.37910 0.00000 Uiso 1.00
O33 O 0.47010 0.88140 0.40400 0.00000 Uiso 1.00
C34 C 0.52350 0.71570 0.55650 0.00000 Uiso 1.00
C35 C 0.52220 0.63650 0.55450 0.00000 Uiso 1.00
H36 H 0.54550 0.60190 0.60860 0.00000 Uiso 1.00
C37 C 0.53880 0.27810 0.58350 0.00000 Uiso 1.00
C38 C 0.54060 0.35760 0.58300 0.00000 Uiso 1.00
N39 N 0.51480 0.48100 0.52250 0.00000 Uiso 1.00
H40 H 0.56210 0.24370 0.63790 0.00000 Uiso 1.00
H41 H 0.56540 0.38820 0.63640 0.00000 Uiso 1.00
O42 O 0.47710 0.12550 0.42540 0.00000 Uiso 1.00
C43 C 0.49550 0.84410 0.48750 0.00000 Uiso 1.00
C44 C 0.49340 0.75900 0.48600 0.00000 Uiso 1.00
C45 C 0.46140 0.72180 0.41570 0.00000 Uiso 1.00
C46 C 0.45960 0.64230 0.41590 0.00000 Uiso 1.00
C47 C 0.49010 0.59920 0.48360 0.00000 Uiso 1.00
N48 N 0.48550 0.51890 0.47620 0.00000 Uiso 1.00
H49 H 0.43800 0.75610 0.36140 0.00000 Uiso 1.00
H50 H 0.43490 0.61160 0.36240 0.00000 Uiso 1.00
O51 O 0.52300 0.87440 0.57410 0.00000 Uiso 1.00
Cl52 Cl 0.56424 0.75573 0.65073 0.00000 Uiso 1.00
O53 O 0.53000 0.11850 0.59540 0.00000 Uiso 1.00
C54 C 0.50460 0.15580 0.51190 0.00000 Uiso 1.00
C55 C 0.50680 0.24090 0.51320 0.00000 Uiso 1.00
C56 C 0.51020 0.40070 0.51510 0.00000 Uiso 1.00
Cl57 Cl 0.43592 0.24435 0.34860 0.00000 Uiso 1.00
H58 H 0.45480 0.39810 0.39020 0.00000 Uiso 1.00
C59 C 0.47670 0.28430 0.44260 0.00000 Uiso 1.00
C60 C 0.47810 0.36350 0.44430 0.00000 Uiso 1.00
loop_
_geom_bond_atom_site_label_1
_geom_bond_atom_site_label_2
_geom_bond_distance
_geom_bond_site_symmetry_2
_ccdc_geom_bond_type
H1 C2 1.098 . S
C2 C3 1.405 . A
C2 C8 1.391 . A
C3 C4 1.409 . A
C3 N13 1.414 . S
C4 H5 1.097 . S
C4 C9 1.384 . A
C6 O7 1.274 . A
C6 C10 1.492 . S
C6 O14 1.286 . A
O7 Zr32 2.244 4_465 S
C8 C10 1.402 . A
C8 H11 1.096 . S
C9 C10 1.408 . A
C9 Cl12 1.745 . S
N13 N27 1.270 . D
O14 Zr32 2.195 3_455 S
H15 C16 1.098 . S
C16 C17 1.404 . A
C16 C22 1.394 . A
C17 C18 1.407 . A
C17 N27 1.415 . S
C18 H19 1.095 . S
C18 C23 1.387 . A
C20 O21 1.273 . A
C20 C24 1.492 . S
C20 O28 1.284 . A
O21 Zr29 2.243 2_564 S
C22 C24 1.402 . A
C22 H25 1.096 . S
C23 C24 1.408 . A
C23 Cl26 1.745 . S
O28 Zr29 2.197 . S
Zr29 O30 2.173 1_455 S
Zr29 O31 2.051 . S
Zr29 O21 2.243 2_565 S
Zr29 O53 2.219 3_455 S
Zr29 O51 2.185 3_445 S
Zr29 O31 2.044 2_565 S
O30 Zr29 2.173 1_655 S
O30 Zr32 2.050 . S
O30 Zr32 2.044 2_565 S
O31 Zr32 2.173 1_455 S
O31 Zr29 2.044 2_564 S
Zr32 O31 2.173 1_655 S
Zr32 O7 2.244 4_564 S
Zr32 O14 2.195 3_545 S
Zr32 O30 2.044 2_564 S
Zr32 O33 2.219 3_545 S
Zr32 O42 2.185 3 S
O33 C43 1.278 . A
O33 Zr32 2.219 3_455 S
C34 C35 1.385 . A
C34 C44 1.406 . A
C34 Cl52 1.745 . S
C35 H36 1.097 . S
C35 C47 1.408 . A
C37 C38 1.391 . A
C37 H40 1.096 . S
C37 C55 1.402 . A
C38 H41 1.098 . S
C38 C56 1.404 . A
N39 N48 1.269 . D
N39 C56 1.414 . S
O42 C54 1.287 . A
O42 Zr32 2.185 3_445 S
C43 C44 1.489 . S
C43 O51 1.287 . A
C44 C45 1.402 . A
C45 C46 1.391 . A
C45 H49 1.097 . S
C46 C47 1.406 . A
C46 H50 1.097 . S
C47 N48 1.414 . S
O51 Zr29 2.185 3 S
O53 C54 1.278 . A
O53 Zr29 2.219 3_545 S
C54 C55 1.490 . S
C55 C59 1.407 . A
C56 C60 1.407 . A
Cl57 C59 1.745 . S
H58 C60 1.097 . S
C59 C60 1.385 . A
