data_graphite

_audit_creation_method RASPA-1.0
_audit_creation_date 2021-10-21
_audit_author_name 'George'

_cell_length_a    2.4598
_cell_length_b    2.4598
_cell_length_c    6.8
_cell_angle_alpha 90
_cell_angle_beta  90
_cell_angle_gamma 120
_cell_volume      35.6319

_symmetry_cell_setting          hexagonal
_symmetry_space_group_name_Hall 'P 1'
_symmetry_space_group_name_H-M  'P 1'
_symmetry_Int_Tables_number     1

_symmetry_equiv_pos_as_xyz 'x,y,z'

loop_
_atom_site_label
_atom_site_type_symbol
_atom_site_fract_x
_atom_site_fract_y
_atom_site_fract_z
_atom_site_charge
C        C      0.333333330000     0.666666670000     0.000000000000     0          
C        C      0.666666660000     0.333333330000     0.000000000000     0          


