data_graphite

_audit_creation_method RASPA-1.0
_audit_creation_date 2021-10-21
_audit_author_name 'George'

_cell_length_a    9.8392
_cell_length_b    9.8392
_cell_length_c    27.2
_cell_angle_alpha 90
_cell_angle_beta  90
_cell_angle_gamma 120
_cell_volume      2280.44

_symmetry_cell_setting          hexagonal
_symmetry_space_group_name_Hall 'P 1'
_symmetry_space_group_name_H-M  'P 1'
_symmetry_Int_Tables_number     1

_symmetry_equiv_pos_as_xyz 'x,y,z'

loop_
_atom_site_label
_atom_site_type_symbol
_atom_site_fract_x
_atom_site_fract_y
_atom_site_fract_z
_atom_site_charge
C        C      0.083333332500     0.166666667500     0.000000000000     0          
C        C      0.166666665000     0.083333332500     0.000000000000     0          
C        C      0.083333332500     0.166666667500     0.250000000000     0          
C        C      0.166666665000     0.083333332500     0.250000000000     0          
C        C      0.083333332500     0.166666667500     0.500000000000     0          
C        C      0.166666665000     0.083333332500     0.500000000000     0          
C        C      0.083333332500     0.166666667500     0.750000000000     0          
C        C      0.166666665000     0.083333332500     0.750000000000     0          
C        C      0.083333332500     0.416666667500     0.000000000000     0          
C        C      0.166666665000     0.333333332500     0.000000000000     0          
C        C      0.083333332500     0.416666667500     0.250000000000     0          
C        C      0.166666665000     0.333333332500     0.250000000000     0          
C        C      0.083333332500     0.416666667500     0.500000000000     0          
C        C      0.166666665000     0.333333332500     0.500000000000     0          
C        C      0.083333332500     0.416666667500     0.750000000000     0          
C        C      0.166666665000     0.333333332500     0.750000000000     0          
C        C      0.083333332500     0.666666667500     0.000000000000     0          
C        C      0.166666665000     0.583333332500     0.000000000000     0          
C        C      0.083333332500     0.666666667500     0.250000000000     0          
C        C      0.166666665000     0.583333332500     0.250000000000     0          
C        C      0.083333332500     0.666666667500     0.500000000000     0          
C        C      0.166666665000     0.583333332500     0.500000000000     0          
C        C      0.083333332500     0.666666667500     0.750000000000     0          
C        C      0.166666665000     0.583333332500     0.750000000000     0          
C        C      0.083333332500     0.916666667500     0.000000000000     0          
C        C      0.166666665000     0.833333332500     0.000000000000     0          
C        C      0.083333332500     0.916666667500     0.250000000000     0          
C        C      0.166666665000     0.833333332500     0.250000000000     0          
C        C      0.083333332500     0.916666667500     0.500000000000     0          
C        C      0.166666665000     0.833333332500     0.500000000000     0          
C        C      0.083333332500     0.916666667500     0.750000000000     0          
C        C      0.166666665000     0.833333332500     0.750000000000     0          
C        C      0.333333332500     0.166666667500     0.000000000000     0          
C        C      0.416666665000     0.083333332500     0.000000000000     0          
C        C      0.333333332500     0.166666667500     0.250000000000     0          
C        C      0.416666665000     0.083333332500     0.250000000000     0          
C        C      0.333333332500     0.166666667500     0.500000000000     0          
C        C      0.416666665000     0.083333332500     0.500000000000     0          
C        C      0.333333332500     0.166666667500     0.750000000000     0          
C        C      0.416666665000     0.083333332500     0.750000000000     0          
C        C      0.333333332500     0.416666667500     0.000000000000     0          
C        C      0.416666665000     0.333333332500     0.000000000000     0          
C        C      0.333333332500     0.416666667500     0.250000000000     0          
C        C      0.416666665000     0.333333332500     0.250000000000     0          
C        C      0.333333332500     0.416666667500     0.500000000000     0          
C        C      0.416666665000     0.333333332500     0.500000000000     0          
C        C      0.333333332500     0.416666667500     0.750000000000     0          
C        C      0.416666665000     0.333333332500     0.750000000000     0          
C        C      0.333333332500     0.666666667500     0.000000000000     0          
C        C      0.416666665000     0.583333332500     0.000000000000     0          
C        C      0.333333332500     0.666666667500     0.250000000000     0          
C        C      0.416666665000     0.583333332500     0.250000000000     0          
C        C      0.333333332500     0.666666667500     0.500000000000     0          
C        C      0.416666665000     0.583333332500     0.500000000000     0          
C        C      0.333333332500     0.666666667500     0.750000000000     0          
C        C      0.416666665000     0.583333332500     0.750000000000     0          
C        C      0.333333332500     0.916666667500     0.000000000000     0          
C        C      0.416666665000     0.833333332500     0.000000000000     0          
C        C      0.333333332500     0.916666667500     0.250000000000     0          
C        C      0.416666665000     0.833333332500     0.250000000000     0          
C        C      0.333333332500     0.916666667500     0.500000000000     0          
C        C      0.416666665000     0.833333332500     0.500000000000     0          
C        C      0.333333332500     0.916666667500     0.750000000000     0          
C        C      0.416666665000     0.833333332500     0.750000000000     0          
C        C      0.583333332500     0.166666667500     0.000000000000     0          
C        C      0.666666665000     0.083333332500     0.000000000000     0          
C        C      0.583333332500     0.166666667500     0.250000000000     0          
C        C      0.666666665000     0.083333332500     0.250000000000     0          
C        C      0.583333332500     0.166666667500     0.500000000000     0          
C        C      0.666666665000     0.083333332500     0.500000000000     0          
C        C      0.583333332500     0.166666667500     0.750000000000     0          
C        C      0.666666665000     0.083333332500     0.750000000000     0          
C        C      0.583333332500     0.416666667500     0.000000000000     0          
C        C      0.666666665000     0.333333332500     0.000000000000     0          
C        C      0.583333332500     0.416666667500     0.250000000000     0          
C        C      0.666666665000     0.333333332500     0.250000000000     0          
C        C      0.583333332500     0.416666667500     0.500000000000     0          
C        C      0.666666665000     0.333333332500     0.500000000000     0          
C        C      0.583333332500     0.416666667500     0.750000000000     0          
C        C      0.666666665000     0.333333332500     0.750000000000     0          
C        C      0.583333332500     0.666666667500     0.000000000000     0          
C        C      0.666666665000     0.583333332500     0.000000000000     0          
C        C      0.583333332500     0.666666667500     0.250000000000     0          
C        C      0.666666665000     0.583333332500     0.250000000000     0          
C        C      0.583333332500     0.666666667500     0.500000000000     0          
C        C      0.666666665000     0.583333332500     0.500000000000     0          
C        C      0.583333332500     0.666666667500     0.750000000000     0          
C        C      0.666666665000     0.583333332500     0.750000000000     0          
C        C      0.583333332500     0.916666667500     0.000000000000     0          
C        C      0.666666665000     0.833333332500     0.000000000000     0          
C        C      0.583333332500     0.916666667500     0.250000000000     0          
C        C      0.666666665000     0.833333332500     0.250000000000     0          
C        C      0.583333332500     0.916666667500     0.500000000000     0          
C        C      0.666666665000     0.833333332500     0.500000000000     0          
C        C      0.583333332500     0.916666667500     0.750000000000     0          
C        C      0.666666665000     0.833333332500     0.750000000000     0          
C        C      0.833333332500     0.166666667500     0.000000000000     0          
C        C      0.916666665000     0.083333332500     0.000000000000     0          
C        C      0.833333332500     0.166666667500     0.250000000000     0          
C        C      0.916666665000     0.083333332500     0.250000000000     0          
C        C      0.833333332500     0.166666667500     0.500000000000     0          
C        C      0.916666665000     0.083333332500     0.500000000000     0          
C        C      0.833333332500     0.166666667500     0.750000000000     0          
C        C      0.916666665000     0.083333332500     0.750000000000     0          
C        C      0.833333332500     0.416666667500     0.000000000000     0          
C        C      0.916666665000     0.333333332500     0.000000000000     0          
C        C      0.833333332500     0.416666667500     0.250000000000     0          
C        C      0.916666665000     0.333333332500     0.250000000000     0          
C        C      0.833333332500     0.416666667500     0.500000000000     0          
C        C      0.916666665000     0.333333332500     0.500000000000     0          
C        C      0.833333332500     0.416666667500     0.750000000000     0          
C        C      0.916666665000     0.333333332500     0.750000000000     0          
C        C      0.833333332500     0.666666667500     0.000000000000     0          
C        C      0.916666665000     0.583333332500     0.000000000000     0          
C        C      0.833333332500     0.666666667500     0.250000000000     0          
C        C      0.916666665000     0.583333332500     0.250000000000     0          
C        C      0.833333332500     0.666666667500     0.500000000000     0          
C        C      0.916666665000     0.583333332500     0.500000000000     0          
C        C      0.833333332500     0.666666667500     0.750000000000     0          
C        C      0.916666665000     0.583333332500     0.750000000000     0          
C        C      0.833333332500     0.916666667500     0.000000000000     0          
C        C      0.916666665000     0.833333332500     0.000000000000     0          
C        C      0.833333332500     0.916666667500     0.250000000000     0          
C        C      0.916666665000     0.833333332500     0.250000000000     0          
C        C      0.833333332500     0.916666667500     0.500000000000     0          
C        C      0.916666665000     0.833333332500     0.500000000000     0          
C        C      0.833333332500     0.916666667500     0.750000000000     0          
C        C      0.916666665000     0.833333332500     0.750000000000     0          


