data_MIL-140B-DFT
_audit_creation_date 2012-03-12
_audit_creation_method 'Materials Studio'
_symmetry_space_group_name_H-M 'CC'
_symmetry_Int_Tables_number 9
_symmetry_cell_setting monoclinic
loop_
_symmetry_equiv_pos_as_xyz
 x,y,z
 x,-y,z+1/2
 x+1/2,y+1/2,z
 x+1/2,-y+1/2,z+1/2
_cell_length_a 28.1582
_cell_length_b 13.4675
_cell_length_c 7.8890
_cell_angle_alpha 90.0000
_cell_angle_beta 93.4300
_cell_angle_gamma 90.0000
loop_
_atom_site_label
_atom_site_type_symbol
_atom_site_fract_x
_atom_site_fract_y
_atom_site_fract_z
_atom_site_U_iso_or_equiv
_atom_site_adp_type
_atom_site_occupancy
C24 C 0.73940 0.23520 0.57700 0.00000 Uiso 1.00
C23 C 0.69620 0.18170 0.56480 0.00000 Uiso 1.00
C22 C 0.73790 0.23740 0.26420 0.00000 Uiso 1.00
C21 C 0.69580 0.18510 0.25640 0.00000 Uiso 1.00
C20 C 0.67470 0.15680 0.40810 0.00000 Uiso 1.00
C19 C 0.62980 0.09770 0.39940 0.00000 Uiso 1.00
C18 C 0.80400 0.31750 0.43540 0.00000 Uiso 1.00
C17 C 0.76240 0.26160 0.73600 0.00000 Uiso 1.00
C16 C 0.80450 0.31410 0.74380 0.00000 Uiso 1.00
C15 C 0.82550 0.34250 0.59200 0.00000 Uiso 1.00
C14 C 0.87030 0.40210 0.60060 0.00000 Uiso 1.00
C13 C 0.76090 0.26390 0.42320 0.00000 Uiso 1.00
C12 C 0.44330 0.45510 0.38950 0.00000 Uiso 1.00
C11 C 0.44860 0.35390 0.40430 0.00000 Uiso 1.00
C10 C 0.52520 0.37510 0.55880 0.00000 Uiso 1.00
C9 C 0.52090 0.47940 0.54330 0.00000 Uiso 1.00
C8 C 0.55680 0.54500 0.61030 0.00000 Uiso 1.00
C7 C 0.55150 0.64620 0.59540 0.00000 Uiso 1.00
C6 C 0.51000 0.68710 0.51060 0.00000 Uiso 1.00
C5 C 0.50440 0.79710 0.50360 0.00000 Uiso 1.00
C4 C 0.49570 0.20290 0.49620 0.00000 Uiso 1.00
C3 C 0.49010 0.31290 0.48920 0.00000 Uiso 1.00
C2 C 0.47920 0.52060 0.45670 0.00000 Uiso 1.00
C1 C 0.47490 0.62490 0.44110 0.00000 Uiso 1.00
H12 H 0.74590 0.23950 0.85350 0.00000 Uiso 1.00
H11 H 0.67940 0.15860 0.68040 0.00000 Uiso 1.00
H10 H 0.75440 0.25960 0.14670 0.00000 Uiso 1.00
H9 H 0.67790 0.16390 0.13460 0.00000 Uiso 1.00
H8 H 0.82080 0.34070 0.31970 0.00000 Uiso 1.00
H7 H 0.82240 0.33540 0.86560 0.00000 Uiso 1.00
H6 H 0.44300 0.65720 0.37540 0.00000 Uiso 1.00
H5 H 0.41130 0.48660 0.32340 0.00000 Uiso 1.00
H4 H 0.42140 0.30300 0.35000 0.00000 Uiso 1.00
H3 H 0.55710 0.34270 0.62450 0.00000 Uiso 1.00
H2 H 0.57880 0.69700 0.64950 0.00000 Uiso 1.00
H1 H 0.58890 0.51340 0.67630 0.00000 Uiso 1.00
O10 O 0.61240 0.07490 0.54060 0.00000 Uiso 1.00
O9 O 0.61260 0.07180 0.25290 0.00000 Uiso 1.00
O8 O 0.88760 0.42500 0.45940 0.00000 Uiso 1.00
O7 O 0.88750 0.42820 0.74700 0.00000 Uiso 1.00
O6 O 0.46520 0.15330 0.40220 0.00000 Uiso 1.00
O5 O 0.47050 0.83530 0.41030 0.00000 Uiso 1.00
O4 O 0.52960 0.16470 0.58950 0.00000 Uiso 1.00
O3 O 0.53490 0.84680 0.59750 0.00000 Uiso 1.00
O2 O 0.02910 0.49330 0.37540 0.00000 Uiso 1.00
O1 O 0.97090 0.49330 0.12440 0.00000 Uiso 1.00
Zr2 Zr 0.04860 0.49620 0.12970 0.00000 Uiso 1.00
Zr1 Zr 0.95140 0.49610 0.37020 0.00000 Uiso 1.00
loop_
_geom_bond_atom_site_label_1
_geom_bond_atom_site_label_2
_geom_bond_distance
_geom_bond_site_symmetry_2
_ccdc_geom_bond_type
C24 C23 1.412 . A
C24 C17 1.422 . A
C24 C13 1.441 . A
C23 C20 1.385 . A
C23 H11 1.097 . S
C22 C21 1.377 . A
C22 C13 1.422 . A
C22 H10 1.103 . S
C21 C20 1.420 . A
C21 H9 1.096 . S
C20 C19 1.492 . S
C19 O10 1.281 . A
C19 O9 1.275 . A
C18 C15 1.384 . A
C18 C13 1.410 . A
C18 H8 1.098 . S
C17 C16 1.379 . A
C17 H12 1.102 . S
C16 C15 1.419 . A
C16 H7 1.096 . S
C15 C14 1.493 . S
C14 O8 1.280 . A
C14 O7 1.275 . A
C12 C11 1.375 . A
C12 C2 1.420 . A
C12 H5 1.099 . S
C11 C3 1.423 . A
C11 H4 1.096 . S
C10 C9 1.415 . A
C10 C3 1.384 . A
C10 H3 1.100 . S
C9 C8 1.421 . A
C9 C2 1.434 . A
C8 C7 1.375 . A
C8 H1 1.101 . S
C7 C6 1.422 . A
C7 H2 1.096 . S
C6 C5 1.490 . S
C6 C1 1.384 . A
C5 O5 1.278 . A
C5 O3 1.288 . A
C4 C3 1.490 . S
C4 O6 1.287 . A
C4 O4 1.278 . A
C2 C1 1.415 . A
C1 H6 1.100 . S
O10 Zr2 2.188 4 S
O9 Zr2 2.240 3_545 S
O8 Zr1 2.189 . S
O7 Zr1 2.239 2_565 S
O6 Zr1 2.165 3_445 S
O5 Zr1 2.249 3_455 S
O4 Zr2 2.250 4 S
O3 Zr2 2.162 4_565 S
O2 Zr2 2.046 . S
O2 Zr1 2.186 1_455 S
O2 Zr2 2.053 2_565 S
O1 Zr2 2.186 1_655 S
O1 Zr1 2.047 . S
O1 Zr1 2.052 2_564 S
Zr2 O1 2.186 1_455 S
Zr2 O10 2.188 4_454 S
Zr2 O9 2.240 3_455 S
Zr2 O4 2.250 4_454 S
Zr2 O3 2.162 4_464 S
Zr2 O2 2.053 2_564 S
Zr1 O2 2.186 1_655 S
Zr1 O7 2.239 2_564 S
Zr1 O6 2.165 3 S
Zr1 O5 2.249 3_545 S
Zr1 O1 2.052 2_565 S
