data_Zr6-Cl2AzoBDC-Crystal06Fullopt
_database_code_depnum_ccdc_archive 'CCDC 889533'
#TrackingRef '- Zr6-Cl2AzoBDC.cif'

_audit_creation_date             2012-06-25
_audit_creation_method           'Materials Studio'
_symmetry_space_group_name_H-M   F23
_symmetry_Int_Tables_number      196
_symmetry_cell_setting           cubic
loop_
_symmetry_equiv_pos_as_xyz
x,y,z
-x,-y,z
-x,y,-z
x,-y,-z
z,x,y
z,-x,-y
-z,-x,y
-z,x,-y
y,z,x
-y,z,-x
y,-z,-x
-y,-z,x
x,y+1/2,z+1/2
-x,-y+1/2,z+1/2
-x,y+1/2,-z+1/2
x,-y+1/2,-z+1/2
z,x+1/2,y+1/2
z,-x+1/2,-y+1/2
-z,-x+1/2,y+1/2
-z,x+1/2,-y+1/2
y,z+1/2,x+1/2
-y,z+1/2,-x+1/2
y,-z+1/2,-x+1/2
-y,-z+1/2,x+1/2
x+1/2,y,z+1/2
-x+1/2,-y,z+1/2
-x+1/2,y,-z+1/2
x+1/2,-y,-z+1/2
z+1/2,x,y+1/2
z+1/2,-x,-y+1/2
-z+1/2,-x,y+1/2
-z+1/2,x,-y+1/2
y+1/2,z,x+1/2
-y+1/2,z,-x+1/2
y+1/2,-z,-x+1/2
-y+1/2,-z,x+1/2
x+1/2,y+1/2,z
-x+1/2,-y+1/2,z
-x+1/2,y+1/2,-z
x+1/2,-y+1/2,-z
z+1/2,x+1/2,y
z+1/2,-x+1/2,-y
-z+1/2,-x+1/2,y
-z+1/2,x+1/2,-y
y+1/2,z+1/2,x
-y+1/2,z+1/2,-x
y+1/2,-z+1/2,-x
-y+1/2,-z+1/2,x
_cell_length_a                   29.9330
_cell_length_b                   29.9330
_cell_length_c                   29.9330
_cell_angle_alpha                90.0000
_cell_angle_beta                 90.0000
_cell_angle_gamma                90.0000
loop_
_atom_site_label
_atom_site_type_symbol
_atom_site_fract_x
_atom_site_fract_y
_atom_site_fract_z
_atom_site_U_iso_or_equiv
_atom_site_adp_type
_atom_site_occupancy
H1 H 0.50420 -0.66625 -0.25415 0.00000 Uiso 1.00
H13 H 0.51277 -0.19138 -0.59102 0.00000 Uiso 1.00
H25 H 0.51625 -0.25640 -0.64365 0.00000 Uiso 1.00
C1 C 0.00345 -0.10615 -0.10730 0.00000 Uiso 1.00
C13 C 0.50430 -0.63550 -0.18910 0.00000 Uiso 1.00
C25 C 0.00637 -0.14222 -0.14232 0.00000 Uiso 1.00
C37 C 0.50625 -0.67150 -0.21845 0.00000 Uiso 1.00
C49 C 0.51100 -0.18635 -0.62685 0.00000 Uiso 1.00
C61 C 0.51047 -0.21513 -0.70197 0.00000 Uiso 1.00
C73 C 0.51298 -0.22243 -0.65588 0.00000 Uiso 1.00
N1 N 0.51142 -0.25383 -0.72932 0.00000 Uiso 1.00
O1 O 0.50215 -0.56570 -0.11975 0.00000 Uiso 1.00
O13 O 0.50195 -0.11920 -0.56695 0.00000 Uiso 1.00
Cl1 Cl 0.49830 -0.58295 -0.21455 0.00000 Uiso 1.00
H37 H 0.56572 -0.93428 -0.56572 0.00000 Uiso 1.00
O25 O 0.95282 -0.95282 -0.95282 0.00000 Uiso 1.00
O29 O 0.03463 -0.03463 -0.03463 0.00000 Uiso 1.00
Zr1 Zr 0.50000 -0.50000 -0.08440 0.00000 Uiso 1.00
loop_
_geom_bond_atom_site_label_1
_geom_bond_atom_site_label_2
_geom_bond_distance
_geom_bond_site_symmetry_2
_ccdc_geom_bond_type
H1 C37 1.082 . S
H13 C49 1.084 . S
H25 C73 1.085 . S
C1 C25 1.508 . S
C1 O13 1.270 25_455 A
C1 O1 1.267 37_455 A
C13 C37 1.392 . A
C13 Cl1 1.757 . S
C13 C25 1.416 37_545 A
C25 C13 1.416 37_455 A
C25 C49 1.406 25_455 A
C37 C61 1.402 13_545 A
C49 C73 1.387 . A
C49 C25 1.406 25_554 A
C61 C73 1.399 . A
C61 N1 1.419 . S
C61 C37 1.402 13_554 A
N1 N1 1.259 16_543 D
O1 Zr1 2.234 . S
O1 C1 1.267 37_545 A
O13 C1 1.270 25_554 A
O13 Zr1 2.259 9_654 S
H37 O25 0.962 27_653 S
O25 H37 0.962 24_533 S
O25 Zr1 2.287 17_634 S
O25 Zr1 2.287 35_644 S
O25 Zr1 2.287 39_644 S
O29 Zr1 2.090 37_455 S
O29 Zr1 2.090 19 S
O29 Zr1 2.090 33_554 S
Zr1 O1 2.234 2_645 S
Zr1 O13 2.259 5_645 S
Zr1 O13 2.259 7 S
Zr1 O25 2.287 39_654 S
Zr1 O25 2.287 40_434 S
Zr1 O29 2.090 37_545 S
Zr1 O29 2.090 38_545 S
